REMARK  9 active torsions:
REMARK  status: ('A' for Active; 'I' for Inactive)
REMARK    1  A    between atoms: C6_2510  and  C9_2514 
REMARK    2  A    between atoms: C9_2514  and  N10_2515 
REMARK    3  A    between atoms: N10_2515  and  C14_2520 
REMARK    4  A    between atoms: C11_2517  and  C_2523 
REMARK       I    between atoms: C_2523  and  N_2525 
REMARK    5  A    between atoms: N_2525  and  CA_2526 
REMARK    6  A    between atoms: CA_2526  and  CT_2527 
REMARK    7  A    between atoms: CA_2526  and  CB_2530 
REMARK    8  A    between atoms: CB_2530  and  CG_2531 
REMARK    9  A    between atoms: CG_2531  and  CD_2532 
ROOT
HETATM    1  C11 MTX A 161      17.895  64.159  25.694  1.00 24.01     0.058 A 
HETATM    2  C12 MTX A 161      17.034  63.542  26.645  1.00 28.16     0.006 A 
HETATM    3  C13 MTX A 161      16.746  62.190  26.542  1.00 23.49     0.017 A 
HETATM    4  C14 MTX A 161      17.293  61.405  25.479  1.00 23.74     0.056 A 
HETATM    5  C15 MTX A 161      18.111  62.009  24.547  1.00 22.78     0.017 A 
HETATM    6  C16 MTX A 161      18.420  63.369  24.666  1.00 19.96     0.006 A 
ENDROOT
BRANCH   4   7
HETATM    7  N10 MTX A 161      16.933  60.032  25.470  1.00 20.01    -0.341 N 
HETATM    8  CM  MTX A 161      16.001  59.328  26.406  1.00 21.77     0.126 C 
BRANCH   7   9
HETATM    9  C9  MTX A 161      17.458  59.159  24.368  1.00 18.09     0.149 C 
BRANCH   9  10
HETATM   10  C6  MTX A 161      18.928  59.047  24.353  1.00 15.69     0.101 A 
HETATM   11  C7  MTX A 161      19.751  59.396  25.444  1.00 27.86     0.117 A 
HETATM   12  N8  MTX A 161      21.091  59.326  25.429  1.00 24.06    -0.222 NA
HETATM   13  C8A MTX A 161      21.588  58.804  24.275  1.00 21.59     0.202 A 
HETATM   14  C4A MTX A 161      20.830  58.402  23.234  1.00 14.97     0.155 A 
HETATM   15  N1  MTX A 161      22.969  58.762  24.258  1.00 18.19    -0.037 NA
HETATM   16  N5  MTX A 161      19.480  58.537  23.214  1.00 17.96    -0.240 NA
HETATM   17  C4  MTX A 161      21.429  57.824  22.036  1.00 18.63     0.223 A 
HETATM   18  NA4 MTX A 161      20.785  57.395  21.013  1.00 16.17    -0.125 N 
HETATM   19  N3  MTX A 161      22.781  57.767  22.140  1.00 16.15    -0.035 NA
HETATM   20  C2  MTX A 161      23.586  58.244  23.192  1.00 20.59     0.771 A 
HETATM   21  NA2 MTX A 161      24.855  58.140  23.122  1.00 23.24     0.062 N 
ENDBRANCH   9  10
ENDBRANCH   7   9
ENDBRANCH   4   7
BRANCH   1  22
HETATM   22  C   MTX A 161      18.205  65.590  25.789  1.00 25.51     0.275 C 
HETATM   23  O   MTX A 161      17.677  66.309  26.645  1.00 33.00    -0.266 OA
HETATM   24  N   MTX A 161      19.113  66.120  24.986  1.00 24.75    -0.225 NA
BRANCH  24  25
HETATM   25  CA  MTX A 161      19.513  67.567  24.984  1.00 28.57     0.194 C 
BRANCH  25  26
HETATM   26  CT  MTX A 161      19.956  67.758  23.561  1.00 26.47     0.209 C 
HETATM   27  O1  MTX A 161      20.297  66.739  22.896  1.00 19.62    -0.646 OA
HETATM   28  O2  MTX A 161      19.924  68.935  23.122  1.00 27.36    -0.646 OA
ENDBRANCH  25  26
BRANCH  25  29
HETATM   29  CB  MTX A 161      20.805  67.757  25.824  1.00 21.92     0.047 C 
BRANCH  29  30
HETATM   30  CG  MTX A 161      20.576  67.691  27.396  1.00 45.65     0.100 C 
BRANCH  30  31
HETATM   31  CD  MTX A 161      19.846  68.873  28.062  1.00 65.84     0.185 C 
HETATM   32  OE1 MTX A 161      19.331  68.531  29.188  1.00 85.97    -0.647 OA
HETATM   33  OE2 MTX A 161      19.786  69.996  27.518  1.00 78.53    -0.647 OA
ENDBRANCH  30  31
ENDBRANCH  29  30
ENDBRANCH  25  29
ENDBRANCH  24  25
ENDBRANCH   1  22
TORSDOF 9
